Circuit: * C:\Users\Simon\Desktop\GIT\AnalogFilterSimulation\Version one\Analog_Filter_EMG.asc

WARNING: Less than two connections to node FREQUENCY_SWEP.  This node is used by RANDOME_NOISE1.
WARNING: Less than two connections to node PURE_SIGNAL.  This node is used by V§SIGNAL1.
Direct Newton iteration for .op point succeeded.

Date: Fri Dec 20 13:13:08 2019
Total elapsed time: 0.125 seconds.

tnom = 27
temp = 27
method = trap
totiter = 3
traniter = 0
tranpoints = 0
accept = 0
rejected = 0
matrix size = 47
fillins = 21
solver = Normal
Matrix Compiler1:     177 opcodes
Matrix Compiler2: 4.64 KB object code size
