Circuit: * C:\Users\Simon\Desktop\GIT\AnalogFilterSimulation\Draft1.asc


Date: Wed Dec 04 13:58:12 2019
Total elapsed time: 0.074 seconds.

tnom = 27
temp = 27
method = trap
totiter = 0
traniter = 0
tranpoints = 0
accept = 0
rejected = 0
matrix size = 4
fillins = 0
solver = Normal

