Circuit: * C:\Users\Simon\Desktop\GIT\AnalogFilterSimulation\Analog_Filter_EMG.asc

WARNING: Less than two connections to node FREQUENCY_SWEP.  This node is used by RANDOME_NOISE1.
Direct Newton iteration for .op point succeeded.

Date: Thu Dec 19 10:32:36 2019
Total elapsed time: 0.179 seconds.

tnom = 27
temp = 27
method = trap
totiter = 3
traniter = 0
tranpoints = 0
accept = 0
rejected = 0
matrix size = 63
fillins = 39
solver = Normal
Matrix Compiler1:     304 opcodes
Matrix Compiler2: 7.05 KB object code size
